build time -- 2022-06-16 16:29:32.873695
  Beginning Test, file ESMF_TestHarnessUTest.F90, line 74
  Beginning Test, file ESMF_TestHarnessUTest.F90, line 74
  NUM  Beginning Test, file ESMF_TestHarnessUTest.F90, line 74
  NUMBER_OF_P  Beginning Test, file ESMF_TestHarnessUTest.F90, line 74
  NUMBER_OF_PROCESSOR  NUMBER_OF_PROCESSORS 4
command line arg count =BER_OF_PROCESSORS 4
ROCESSORS 4
S 4
    4
command line arg [ 1] =    5:-case
command line arg [ 2] =   21:array_default_test.rc
command line arg [ 3] =    4:-xml
command line arg [ 4] =   17:array_default.xml
argindex (-path) =   -1
argindex (-case) =    1
argindex (-xml) =    3
Path Length =     1
Path = .
Config File = array_default_test.rc
Run Flag =  1
XML Flag =  1
XML File = array_default.xml
   0Path = .
   0Config    1Path = .
   1C   2Path = .
   2Config   3Path = .
   3Config File = aFile = array_default_test.rc
   0Run Flag =  1
   0XMonfig File = array_default_test.rc
    File = array_default_test.rc
   2Run rray_default_test.rc
   3Run Flag =  1L Flag =  1
   0XML File = array_default.xml
1Run Flag =  1
   1XML Flag =  1
  Flag =  1
   2XML Flag =  1
   2XML
   3XML Flag =  1
   3XML File = ar 1XML File = array_default.xml
 File = array_default.xml
ray_default.xml
 running nonexhaustive tests
 --------------------------------------- 
 Start of test harness test for class ARRAY
 --------------------------------------- 
 Opening Dist specifier file  ./array_default_dist_2D.rc
 Opening Dist speci Opening Dfier file  ./array_deist specifier file  ./fault_dist_2D.rc
array_default_dist_2D.rc
 Opening Dist specifier file  ./array_default_dist_2D.rc
 Opening Grid specifier file  ./array_default_grid_2D.rc
 Opening Grid speci Ofier file  ./array_depening Grid specifiefault_grid_2D.rc
r file  ./array_default_grid_2D.rc
  read grid specification for redistribution test
  read grid specification for  Opening Gri  read grid speredistribution test
d specifier file  ./array_defcification for redistributioault_grid_2D.rc
n test
  read grid specification for redistribution test
 Problem Descriptor String [B1G1;B2G2] --> [B1G1;B2G2]
 ( grid config, distribution config, Grid file, Distribution file)
 (1,1,1,1) string=[B1{1}G1{400};B2{1}G2{200}]-->[B1{1}G1{400};B2{1}G2{200}]
                
                
                
                
 -----------------======array redist test==========-----------------------
array redist test -  with string [B1G1;B2G2] --> [B1G1;B2G2] with entry 1 of file ./array_default_dist_2D.rc and entry 1 of file ./array_default_grid_2D.rc
 Array Redist Completed
  PASS: ESMF_TestHarnessUTest.F90 287
PASS: 
 --------------------------------------- 
 E  Ending Test, file ESMF_TestHarnessUTest.F90, line 2  Ending Test, file ESMF_TestHarnessUTest.F90, line 299
  Ending Test, file ESMF_TestHarnessUTest.F90, line 299
nd of harness test for class ARRAY
 --------------------------------------- 
  Endi99
ng Test, file ESMF_TestHarnessUTest.F90, line 299
  PET 0  Test Elapsed Time    2.3145250000000001E+03  msec.
  PET 1    PET 2  Test Elapsed Time    2.2817  PET 3  Test Elapsed Time    2.2809760000000001E+03  msec.
Test Elapsed Time    2.2815060000000003E+03  msec.
090000000003E+03  msec.
